simulator lang=spectre
vwl_0 (WL\<0\> VSS) vsource type=pwl wave=[  \
0.000000000000 0.000000000000 \
0.000001000000 0.000000000000 \
0.000002000000 0.000000000000  \
0.000002000100 1.200000000000  \
0.000003000000 1.200000000000  \
0.000003000100 0.000000000000] 

vwl_1 (WL\<1\> VSS) vsource type=pwl wave=[  \
0.000000000000 0.000000000000 \
0.000001000000 0.000000000000 \
0.000003000000 0.000000000000  \
0.000003000100 1.200000000000  \
0.000004000000 1.200000000000  \
0.000004000100 0.000000000000] 

vwl_2 (WL\<2\> VSS) vsource type=pwl wave=[  \
0.000000000000 0.000000000000 \
0.000001000000 0.000000000000 \
0.000004000000 0.000000000000  \
0.000004000100 1.200000000000  \
0.000005000000 1.200000000000  \
0.000005000100 0.000000000000] 

vwl_3 (WL\<3\> VSS) vsource type=pwl wave=[  \
0.000000000000 0.000000000000 \
0.000001000000 0.000000000000 \
0.000005000000 0.000000000000  \
0.000005000100 1.200000000000  \
0.000006000000 1.200000000000  \
0.000006000100 0.000000000000] 

vwl_4 (WL\<4\> VSS) vsource type=pwl wave=[  \
0.000000000000 0.000000000000 \
0.000001000000 0.000000000000 \
0.000006000000 0.000000000000  \
0.000006000100 1.200000000000  \
0.000007000000 1.200000000000  \
0.000007000100 0.000000000000] 

vwl_5 (WL\<5\> VSS) vsource type=pwl wave=[  \
0.000000000000 0.000000000000 \
0.000001000000 0.000000000000 \
0.000007000000 0.000000000000  \
0.000007000100 1.200000000000  \
0.000008000000 1.200000000000  \
0.000008000100 0.000000000000] 

vwl_6 (WL\<6\> VSS) vsource type=pwl wave=[  \
0.000000000000 0.000000000000 \
0.000001000000 0.000000000000 \
0.000008000000 0.000000000000  \
0.000008000100 1.200000000000  \
0.000009000000 1.200000000000  \
0.000009000100 0.000000000000] 

vwl_7 (WL\<7\> VSS) vsource type=pwl wave=[  \
0.000000000000 0.000000000000 \
0.000001000000 0.000000000000 \
0.000009000000 0.000000000000  \
0.000009000100 1.200000000000  \
0.000010000000 1.200000000000  \
0.000010000100 0.000000000000] 

vwl_8 (WL\<8\> VSS) vsource type=pwl wave=[  \
0.000000000000 0.000000000000 \
0.000001000000 0.000000000000 \
0.000010000000 0.000000000000  \
0.000010000100 1.200000000000  \
0.000011000000 1.200000000000  \
0.000011000100 0.000000000000] 

vwl_9 (WL\<9\> VSS) vsource type=pwl wave=[  \
0.000000000000 0.000000000000 \
0.000001000000 0.000000000000 \
0.000011000000 0.000000000000  \
0.000011000100 1.200000000000  \
0.000012000000 1.200000000000  \
0.000012000100 0.000000000000] 

vwl_10 (WL\<10\> VSS) vsource type=pwl wave=[  \
0.000000000000 0.000000000000 \
0.000001000000 0.000000000000 \
0.000012000000 0.000000000000  \
0.000012000100 1.200000000000  \
0.000013000000 1.200000000000  \
0.000013000100 0.000000000000] 

vwl_11 (WL\<11\> VSS) vsource type=pwl wave=[  \
0.000000000000 0.000000000000 \
0.000001000000 0.000000000000 \
0.000013000000 0.000000000000  \
0.000013000100 1.200000000000  \
0.000014000000 1.200000000000  \
0.000014000100 0.000000000000] 

vwl_12 (WL\<12\> VSS) vsource type=pwl wave=[  \
0.000000000000 0.000000000000 \
0.000001000000 0.000000000000 \
0.000014000000 0.000000000000  \
0.000014000100 1.200000000000  \
0.000015000000 1.200000000000  \
0.000015000100 0.000000000000] 

vwl_13 (WL\<13\> VSS) vsource type=pwl wave=[  \
0.000000000000 0.000000000000 \
0.000001000000 0.000000000000 \
0.000015000000 0.000000000000  \
0.000015000100 1.200000000000  \
0.000016000000 1.200000000000  \
0.000016000100 0.000000000000] 

vwl_14 (WL\<14\> VSS) vsource type=pwl wave=[  \
0.000000000000 0.000000000000 \
0.000001000000 0.000000000000 \
0.000016000000 0.000000000000  \
0.000016000100 1.200000000000  \
0.000017000000 1.200000000000  \
0.000017000100 0.000000000000] 

vwl_15 (WL\<15\> VSS) vsource type=pwl wave=[  \
0.000000000000 0.000000000000 \
0.000001000000 0.000000000000 \
0.000017000000 0.000000000000  \
0.000017000100 1.200000000000  \
0.000018000000 1.200000000000  \
0.000018000100 0.000000000000] 

vwl_16 (WL\<16\> VSS) vsource type=pwl wave=[  \
0.000000000000 0.000000000000 \
0.000001000000 0.000000000000 \
0.000018000000 0.000000000000  \
0.000018000100 1.200000000000  \
0.000019000000 1.200000000000  \
0.000019000100 0.000000000000] 

vwl_17 (WL\<17\> VSS) vsource type=pwl wave=[  \
0.000000000000 0.000000000000 \
0.000001000000 0.000000000000 \
0.000019000000 0.000000000000  \
0.000019000100 1.200000000000  \
0.000020000000 1.200000000000  \
0.000020000100 0.000000000000] 

vwl_18 (WL\<18\> VSS) vsource type=pwl wave=[  \
0.000000000000 0.000000000000 \
0.000001000000 0.000000000000 \
0.000020000000 0.000000000000  \
0.000020000100 1.200000000000  \
0.000021000000 1.200000000000  \
0.000021000100 0.000000000000] 

vwl_19 (WL\<19\> VSS) vsource type=pwl wave=[  \
0.000000000000 0.000000000000 \
0.000001000000 0.000000000000 \
0.000021000000 0.000000000000  \
0.000021000100 1.200000000000  \
0.000022000000 1.200000000000  \
0.000022000100 0.000000000000] 

vwl_20 (WL\<20\> VSS) vsource type=pwl wave=[  \
0.000000000000 0.000000000000 \
0.000001000000 0.000000000000 \
0.000022000000 0.000000000000  \
0.000022000100 1.200000000000  \
0.000023000000 1.200000000000  \
0.000023000100 0.000000000000] 

vwl_21 (WL\<21\> VSS) vsource type=pwl wave=[  \
0.000000000000 0.000000000000 \
0.000001000000 0.000000000000 \
0.000023000000 0.000000000000  \
0.000023000100 1.200000000000  \
0.000024000000 1.200000000000  \
0.000024000100 0.000000000000] 

vwl_22 (WL\<22\> VSS) vsource type=pwl wave=[  \
0.000000000000 0.000000000000 \
0.000001000000 0.000000000000 \
0.000024000000 0.000000000000  \
0.000024000100 1.200000000000  \
0.000025000000 1.200000000000  \
0.000025000100 0.000000000000] 

vwl_23 (WL\<23\> VSS) vsource type=pwl wave=[  \
0.000000000000 0.000000000000 \
0.000001000000 0.000000000000 \
0.000025000000 0.000000000000  \
0.000025000100 1.200000000000  \
0.000026000000 1.200000000000  \
0.000026000100 0.000000000000] 

vwl_24 (WL\<24\> VSS) vsource type=pwl wave=[  \
0.000000000000 0.000000000000 \
0.000001000000 0.000000000000 \
0.000026000000 0.000000000000  \
0.000026000100 1.200000000000  \
0.000027000000 1.200000000000  \
0.000027000100 0.000000000000] 

vwl_25 (WL\<25\> VSS) vsource type=pwl wave=[  \
0.000000000000 0.000000000000 \
0.000001000000 0.000000000000 \
0.000027000000 0.000000000000  \
0.000027000100 1.200000000000  \
0.000028000000 1.200000000000  \
0.000028000100 0.000000000000] 

vwl_26 (WL\<26\> VSS) vsource type=pwl wave=[  \
0.000000000000 0.000000000000 \
0.000001000000 0.000000000000 \
0.000028000000 0.000000000000  \
0.000028000100 1.200000000000  \
0.000029000000 1.200000000000  \
0.000029000100 0.000000000000] 

vwl_27 (WL\<27\> VSS) vsource type=pwl wave=[  \
0.000000000000 0.000000000000 \
0.000001000000 0.000000000000 \
0.000029000000 0.000000000000  \
0.000029000100 1.200000000000  \
0.000030000000 1.200000000000  \
0.000030000100 0.000000000000] 

vwl_28 (WL\<28\> VSS) vsource type=pwl wave=[  \
0.000000000000 0.000000000000 \
0.000001000000 0.000000000000 \
0.000030000000 0.000000000000  \
0.000030000100 1.200000000000  \
0.000031000000 1.200000000000  \
0.000031000100 0.000000000000] 

vwl_29 (WL\<29\> VSS) vsource type=pwl wave=[  \
0.000000000000 0.000000000000 \
0.000001000000 0.000000000000 \
0.000031000000 0.000000000000  \
0.000031000100 1.200000000000  \
0.000032000000 1.200000000000  \
0.000032000100 0.000000000000] 

vwl_30 (WL\<30\> VSS) vsource type=pwl wave=[  \
0.000000000000 0.000000000000 \
0.000001000000 0.000000000000 \
0.000032000000 0.000000000000  \
0.000032000100 1.200000000000  \
0.000033000000 1.200000000000  \
0.000033000100 0.000000000000] 

vwl_31 (WL\<31\> VSS) vsource type=pwl wave=[  \
0.000000000000 0.000000000000 \
0.000001000000 0.000000000000 \
0.000033000000 0.000000000000  \
0.000033000100 1.200000000000  \
0.000034000000 1.200000000000  \
0.000034000100 0.000000000000] 

vwl_32 (WL\<32\> VSS) vsource type=pwl wave=[  \
0.000000000000 0.000000000000 \
0.000001000000 0.000000000000 \
0.000034000000 0.000000000000  \
0.000034000100 1.200000000000  \
0.000035000000 1.200000000000  \
0.000035000100 0.000000000000] 

vwl_33 (WL\<33\> VSS) vsource type=pwl wave=[  \
0.000000000000 0.000000000000 \
0.000001000000 0.000000000000 \
0.000035000000 0.000000000000  \
0.000035000100 1.200000000000  \
0.000036000000 1.200000000000  \
0.000036000100 0.000000000000] 

vwl_34 (WL\<34\> VSS) vsource type=pwl wave=[  \
0.000000000000 0.000000000000 \
0.000001000000 0.000000000000 \
0.000036000000 0.000000000000  \
0.000036000100 1.200000000000  \
0.000037000000 1.200000000000  \
0.000037000100 0.000000000000] 

vwl_35 (WL\<35\> VSS) vsource type=pwl wave=[  \
0.000000000000 0.000000000000 \
0.000001000000 0.000000000000 \
0.000037000000 0.000000000000  \
0.000037000100 1.200000000000  \
0.000038000000 1.200000000000  \
0.000038000100 0.000000000000] 

vwl_36 (WL\<36\> VSS) vsource type=pwl wave=[  \
0.000000000000 0.000000000000 \
0.000001000000 0.000000000000 \
0.000038000000 0.000000000000  \
0.000038000100 1.200000000000  \
0.000039000000 1.200000000000  \
0.000039000100 0.000000000000] 

vwl_37 (WL\<37\> VSS) vsource type=pwl wave=[  \
0.000000000000 0.000000000000 \
0.000001000000 0.000000000000 \
0.000039000000 0.000000000000  \
0.000039000100 1.200000000000  \
0.000040000000 1.200000000000  \
0.000040000100 0.000000000000] 

vwl_38 (WL\<38\> VSS) vsource type=pwl wave=[  \
0.000000000000 0.000000000000 \
0.000001000000 0.000000000000 \
0.000040000000 0.000000000000  \
0.000040000100 1.200000000000  \
0.000041000000 1.200000000000  \
0.000041000100 0.000000000000] 

vwl_39 (WL\<39\> VSS) vsource type=pwl wave=[  \
0.000000000000 0.000000000000 \
0.000001000000 0.000000000000 \
0.000041000000 0.000000000000  \
0.000041000100 1.200000000000  \
0.000042000000 1.200000000000  \
0.000042000100 0.000000000000] 

vwl_40 (WL\<40\> VSS) vsource type=pwl wave=[  \
0.000000000000 0.000000000000 \
0.000001000000 0.000000000000 \
0.000042000000 0.000000000000  \
0.000042000100 1.200000000000  \
0.000043000000 1.200000000000  \
0.000043000100 0.000000000000] 

vwl_41 (WL\<41\> VSS) vsource type=pwl wave=[  \
0.000000000000 0.000000000000 \
0.000001000000 0.000000000000 \
0.000043000000 0.000000000000  \
0.000043000100 1.200000000000  \
0.000044000000 1.200000000000  \
0.000044000100 0.000000000000] 

vwl_42 (WL\<42\> VSS) vsource type=pwl wave=[  \
0.000000000000 0.000000000000 \
0.000001000000 0.000000000000 \
0.000044000000 0.000000000000  \
0.000044000100 1.200000000000  \
0.000045000000 1.200000000000  \
0.000045000100 0.000000000000] 

vwl_43 (WL\<43\> VSS) vsource type=pwl wave=[  \
0.000000000000 0.000000000000 \
0.000001000000 0.000000000000 \
0.000045000000 0.000000000000  \
0.000045000100 1.200000000000  \
0.000046000000 1.200000000000  \
0.000046000100 0.000000000000] 

vwl_44 (WL\<44\> VSS) vsource type=pwl wave=[  \
0.000000000000 0.000000000000 \
0.000001000000 0.000000000000 \
0.000046000000 0.000000000000  \
0.000046000100 1.200000000000  \
0.000047000000 1.200000000000  \
0.000047000100 0.000000000000] 

vwl_45 (WL\<45\> VSS) vsource type=pwl wave=[  \
0.000000000000 0.000000000000 \
0.000001000000 0.000000000000 \
0.000047000000 0.000000000000  \
0.000047000100 1.200000000000  \
0.000048000000 1.200000000000  \
0.000048000100 0.000000000000] 

vwl_46 (WL\<46\> VSS) vsource type=pwl wave=[  \
0.000000000000 0.000000000000 \
0.000001000000 0.000000000000 \
0.000048000000 0.000000000000  \
0.000048000100 1.200000000000  \
0.000049000000 1.200000000000  \
0.000049000100 0.000000000000] 

vwl_47 (WL\<47\> VSS) vsource type=pwl wave=[  \
0.000000000000 0.000000000000 \
0.000001000000 0.000000000000 \
0.000049000000 0.000000000000  \
0.000049000100 1.200000000000  \
0.000050000000 1.200000000000  \
0.000050000100 0.000000000000] 

vwl_48 (WL\<48\> VSS) vsource type=pwl wave=[  \
0.000000000000 0.000000000000 \
0.000001000000 0.000000000000 \
0.000050000000 0.000000000000  \
0.000050000100 1.200000000000  \
0.000051000000 1.200000000000  \
0.000051000100 0.000000000000] 

vwl_49 (WL\<49\> VSS) vsource type=pwl wave=[  \
0.000000000000 0.000000000000 \
0.000001000000 0.000000000000 \
0.000051000000 0.000000000000  \
0.000051000100 1.200000000000  \
0.000052000000 1.200000000000  \
0.000052000100 0.000000000000] 

vwl_50 (WL\<50\> VSS) vsource type=pwl wave=[  \
0.000000000000 0.000000000000 \
0.000001000000 0.000000000000 \
0.000052000000 0.000000000000  \
0.000052000100 1.200000000000  \
0.000053000000 1.200000000000  \
0.000053000100 0.000000000000] 

vwl_51 (WL\<51\> VSS) vsource type=pwl wave=[  \
0.000000000000 0.000000000000 \
0.000001000000 0.000000000000 \
0.000053000000 0.000000000000  \
0.000053000100 1.200000000000  \
0.000054000000 1.200000000000  \
0.000054000100 0.000000000000] 

vwl_52 (WL\<52\> VSS) vsource type=pwl wave=[  \
0.000000000000 0.000000000000 \
0.000001000000 0.000000000000 \
0.000054000000 0.000000000000  \
0.000054000100 1.200000000000  \
0.000055000000 1.200000000000  \
0.000055000100 0.000000000000] 

vwl_53 (WL\<53\> VSS) vsource type=pwl wave=[  \
0.000000000000 0.000000000000 \
0.000001000000 0.000000000000 \
0.000055000000 0.000000000000  \
0.000055000100 1.200000000000  \
0.000056000000 1.200000000000  \
0.000056000100 0.000000000000] 

vwl_54 (WL\<54\> VSS) vsource type=pwl wave=[  \
0.000000000000 0.000000000000 \
0.000001000000 0.000000000000 \
0.000056000000 0.000000000000  \
0.000056000100 1.200000000000  \
0.000057000000 1.200000000000  \
0.000057000100 0.000000000000] 

vwl_55 (WL\<55\> VSS) vsource type=pwl wave=[  \
0.000000000000 0.000000000000 \
0.000001000000 0.000000000000 \
0.000057000000 0.000000000000  \
0.000057000100 1.200000000000  \
0.000058000000 1.200000000000  \
0.000058000100 0.000000000000] 

vwl_56 (WL\<56\> VSS) vsource type=pwl wave=[  \
0.000000000000 0.000000000000 \
0.000001000000 0.000000000000 \
0.000058000000 0.000000000000  \
0.000058000100 1.200000000000  \
0.000059000000 1.200000000000  \
0.000059000100 0.000000000000] 

vwl_57 (WL\<57\> VSS) vsource type=pwl wave=[  \
0.000000000000 0.000000000000 \
0.000001000000 0.000000000000 \
0.000059000000 0.000000000000  \
0.000059000100 1.200000000000  \
0.000060000000 1.200000000000  \
0.000060000100 0.000000000000] 

vwl_58 (WL\<58\> VSS) vsource type=pwl wave=[  \
0.000000000000 0.000000000000 \
0.000001000000 0.000000000000 \
0.000060000000 0.000000000000  \
0.000060000100 1.200000000000  \
0.000061000000 1.200000000000  \
0.000061000100 0.000000000000] 

vwl_59 (WL\<59\> VSS) vsource type=pwl wave=[  \
0.000000000000 0.000000000000 \
0.000001000000 0.000000000000 \
0.000061000000 0.000000000000  \
0.000061000100 1.200000000000  \
0.000062000000 1.200000000000  \
0.000062000100 0.000000000000] 

vwl_60 (WL\<60\> VSS) vsource type=pwl wave=[  \
0.000000000000 0.000000000000 \
0.000001000000 0.000000000000 \
0.000062000000 0.000000000000  \
0.000062000100 1.200000000000  \
0.000063000000 1.200000000000  \
0.000063000100 0.000000000000] 

vwl_61 (WL\<61\> VSS) vsource type=pwl wave=[  \
0.000000000000 0.000000000000 \
0.000001000000 0.000000000000 \
0.000063000000 0.000000000000  \
0.000063000100 1.200000000000  \
0.000064000000 1.200000000000  \
0.000064000100 0.000000000000] 

vwl_62 (WL\<62\> VSS) vsource type=pwl wave=[  \
0.000000000000 0.000000000000 \
0.000001000000 0.000000000000 \
0.000064000000 0.000000000000  \
0.000064000100 1.200000000000  \
0.000065000000 1.200000000000  \
0.000065000100 0.000000000000] 

vwl_63 (WL\<63\> VSS) vsource type=pwl wave=[  \
0.000000000000 0.000000000000 \
0.000001000000 0.000000000000 \
0.000065000000 0.000000000000  \
0.000065000100 1.200000000000  \
0.000066000000 1.200000000000  \
0.000066000100 0.000000000000] 

vwl_64 (WL\<64\> VSS) vsource type=pwl wave=[  \
0.000000000000 0.000000000000 \
0.000001000000 0.000000000000 \
0.000066000000 0.000000000000  \
0.000066000100 1.200000000000  \
0.000067000000 1.200000000000  \
0.000067000100 0.000000000000] 

vwl_65 (WL\<65\> VSS) vsource type=pwl wave=[  \
0.000000000000 0.000000000000 \
0.000001000000 0.000000000000 \
0.000067000000 0.000000000000  \
0.000067000100 1.200000000000  \
0.000068000000 1.200000000000  \
0.000068000100 0.000000000000] 

vwl_66 (WL\<66\> VSS) vsource type=pwl wave=[  \
0.000000000000 0.000000000000 \
0.000001000000 0.000000000000 \
0.000068000000 0.000000000000  \
0.000068000100 1.200000000000  \
0.000069000000 1.200000000000  \
0.000069000100 0.000000000000] 

vwl_67 (WL\<67\> VSS) vsource type=pwl wave=[  \
0.000000000000 0.000000000000 \
0.000001000000 0.000000000000 \
0.000069000000 0.000000000000  \
0.000069000100 1.200000000000  \
0.000070000000 1.200000000000  \
0.000070000100 0.000000000000] 

vwl_68 (WL\<68\> VSS) vsource type=pwl wave=[  \
0.000000000000 0.000000000000 \
0.000001000000 0.000000000000 \
0.000070000000 0.000000000000  \
0.000070000100 1.200000000000  \
0.000071000000 1.200000000000  \
0.000071000100 0.000000000000] 

vwl_69 (WL\<69\> VSS) vsource type=pwl wave=[  \
0.000000000000 0.000000000000 \
0.000001000000 0.000000000000 \
0.000071000000 0.000000000000  \
0.000071000100 1.200000000000  \
0.000072000000 1.200000000000  \
0.000072000100 0.000000000000] 

vwl_70 (WL\<70\> VSS) vsource type=pwl wave=[  \
0.000000000000 0.000000000000 \
0.000001000000 0.000000000000 \
0.000072000000 0.000000000000  \
0.000072000100 1.200000000000  \
0.000073000000 1.200000000000  \
0.000073000100 0.000000000000] 

vwl_71 (WL\<71\> VSS) vsource type=pwl wave=[  \
0.000000000000 0.000000000000 \
0.000001000000 0.000000000000 \
0.000073000000 0.000000000000  \
0.000073000100 1.200000000000  \
0.000074000000 1.200000000000  \
0.000074000100 0.000000000000] 

vwl_72 (WL\<72\> VSS) vsource type=pwl wave=[  \
0.000000000000 0.000000000000 \
0.000001000000 0.000000000000 \
0.000074000000 0.000000000000  \
0.000074000100 1.200000000000  \
0.000075000000 1.200000000000  \
0.000075000100 0.000000000000] 

vwl_73 (WL\<73\> VSS) vsource type=pwl wave=[  \
0.000000000000 0.000000000000 \
0.000001000000 0.000000000000 \
0.000075000000 0.000000000000  \
0.000075000100 1.200000000000  \
0.000076000000 1.200000000000  \
0.000076000100 0.000000000000] 

vwl_74 (WL\<74\> VSS) vsource type=pwl wave=[  \
0.000000000000 0.000000000000 \
0.000001000000 0.000000000000 \
0.000076000000 0.000000000000  \
0.000076000100 1.200000000000  \
0.000077000000 1.200000000000  \
0.000077000100 0.000000000000] 

vwl_75 (WL\<75\> VSS) vsource type=pwl wave=[  \
0.000000000000 0.000000000000 \
0.000001000000 0.000000000000 \
0.000077000000 0.000000000000  \
0.000077000100 1.200000000000  \
0.000078000000 1.200000000000  \
0.000078000100 0.000000000000] 

vwl_76 (WL\<76\> VSS) vsource type=pwl wave=[  \
0.000000000000 0.000000000000 \
0.000001000000 0.000000000000 \
0.000078000000 0.000000000000  \
0.000078000100 1.200000000000  \
0.000079000000 1.200000000000  \
0.000079000100 0.000000000000] 

vwl_77 (WL\<77\> VSS) vsource type=pwl wave=[  \
0.000000000000 0.000000000000 \
0.000001000000 0.000000000000 \
0.000079000000 0.000000000000  \
0.000079000100 1.200000000000  \
0.000080000000 1.200000000000  \
0.000080000100 0.000000000000] 

vwl_78 (WL\<78\> VSS) vsource type=pwl wave=[  \
0.000000000000 0.000000000000 \
0.000001000000 0.000000000000 \
0.000080000000 0.000000000000  \
0.000080000100 1.200000000000  \
0.000081000000 1.200000000000  \
0.000081000100 0.000000000000] 

vwl_79 (WL\<79\> VSS) vsource type=pwl wave=[  \
0.000000000000 0.000000000000 \
0.000001000000 0.000000000000 \
0.000081000000 0.000000000000  \
0.000081000100 1.200000000000  \
0.000082000000 1.200000000000  \
0.000082000100 0.000000000000] 

vwl_80 (WL\<80\> VSS) vsource type=pwl wave=[  \
0.000000000000 0.000000000000 \
0.000001000000 0.000000000000 \
0.000082000000 0.000000000000  \
0.000082000100 1.200000000000  \
0.000083000000 1.200000000000  \
0.000083000100 0.000000000000] 

vwl_81 (WL\<81\> VSS) vsource type=pwl wave=[  \
0.000000000000 0.000000000000 \
0.000001000000 0.000000000000 \
0.000083000000 0.000000000000  \
0.000083000100 1.200000000000  \
0.000084000000 1.200000000000  \
0.000084000100 0.000000000000] 

vwl_82 (WL\<82\> VSS) vsource type=pwl wave=[  \
0.000000000000 0.000000000000 \
0.000001000000 0.000000000000 \
0.000084000000 0.000000000000  \
0.000084000100 1.200000000000  \
0.000085000000 1.200000000000  \
0.000085000100 0.000000000000] 

vwl_83 (WL\<83\> VSS) vsource type=pwl wave=[  \
0.000000000000 0.000000000000 \
0.000001000000 0.000000000000 \
0.000085000000 0.000000000000  \
0.000085000100 1.200000000000  \
0.000086000000 1.200000000000  \
0.000086000100 0.000000000000] 

vwl_84 (WL\<84\> VSS) vsource type=pwl wave=[  \
0.000000000000 0.000000000000 \
0.000001000000 0.000000000000 \
0.000086000000 0.000000000000  \
0.000086000100 1.200000000000  \
0.000087000000 1.200000000000  \
0.000087000100 0.000000000000] 

vwl_85 (WL\<85\> VSS) vsource type=pwl wave=[  \
0.000000000000 0.000000000000 \
0.000001000000 0.000000000000 \
0.000087000000 0.000000000000  \
0.000087000100 1.200000000000  \
0.000088000000 1.200000000000  \
0.000088000100 0.000000000000] 

vwl_86 (WL\<86\> VSS) vsource type=pwl wave=[  \
0.000000000000 0.000000000000 \
0.000001000000 0.000000000000 \
0.000088000000 0.000000000000  \
0.000088000100 1.200000000000  \
0.000089000000 1.200000000000  \
0.000089000100 0.000000000000] 

vwl_87 (WL\<87\> VSS) vsource type=pwl wave=[  \
0.000000000000 0.000000000000 \
0.000001000000 0.000000000000 \
0.000089000000 0.000000000000  \
0.000089000100 1.200000000000  \
0.000090000000 1.200000000000  \
0.000090000100 0.000000000000] 

vwl_88 (WL\<88\> VSS) vsource type=pwl wave=[  \
0.000000000000 0.000000000000 \
0.000001000000 0.000000000000 \
0.000090000000 0.000000000000  \
0.000090000100 1.200000000000  \
0.000091000000 1.200000000000  \
0.000091000100 0.000000000000] 

vwl_89 (WL\<89\> VSS) vsource type=pwl wave=[  \
0.000000000000 0.000000000000 \
0.000001000000 0.000000000000 \
0.000091000000 0.000000000000  \
0.000091000100 1.200000000000  \
0.000092000000 1.200000000000  \
0.000092000100 0.000000000000] 

vwl_90 (WL\<90\> VSS) vsource type=pwl wave=[  \
0.000000000000 0.000000000000 \
0.000001000000 0.000000000000 \
0.000092000000 0.000000000000  \
0.000092000100 1.200000000000  \
0.000093000000 1.200000000000  \
0.000093000100 0.000000000000] 

vwl_91 (WL\<91\> VSS) vsource type=pwl wave=[  \
0.000000000000 0.000000000000 \
0.000001000000 0.000000000000 \
0.000093000000 0.000000000000  \
0.000093000100 1.200000000000  \
0.000094000000 1.200000000000  \
0.000094000100 0.000000000000] 

vwl_92 (WL\<92\> VSS) vsource type=pwl wave=[  \
0.000000000000 0.000000000000 \
0.000001000000 0.000000000000 \
0.000094000000 0.000000000000  \
0.000094000100 1.200000000000  \
0.000095000000 1.200000000000  \
0.000095000100 0.000000000000] 

vwl_93 (WL\<93\> VSS) vsource type=pwl wave=[  \
0.000000000000 0.000000000000 \
0.000001000000 0.000000000000 \
0.000095000000 0.000000000000  \
0.000095000100 1.200000000000  \
0.000096000000 1.200000000000  \
0.000096000100 0.000000000000] 

vwl_94 (WL\<94\> VSS) vsource type=pwl wave=[  \
0.000000000000 0.000000000000 \
0.000001000000 0.000000000000 \
0.000096000000 0.000000000000  \
0.000096000100 1.200000000000  \
0.000097000000 1.200000000000  \
0.000097000100 0.000000000000] 

vwl_95 (WL\<95\> VSS) vsource type=pwl wave=[  \
0.000000000000 0.000000000000 \
0.000001000000 0.000000000000 \
0.000097000000 0.000000000000  \
0.000097000100 1.200000000000  \
0.000098000000 1.200000000000  \
0.000098000100 0.000000000000] 

